.title KiCad schematic
* .op
.tran 1ns 500ns
.print tran v(aluz1) v(aluz2) v(aluz3) v(aluz4)
.model NPN npn (is=6.7e-15 bf=416.4 nf=1 vaf=74.03 ikf=0.06678 ise=6.7e-15 ne=1.259 br=0.7371 nr=1 rb=10 rc=1)
V14 aluVcc 0 dc 5
V1 B1in 0 dc 0
V2 B2in 0 dc 5
V3 B3in 0 dc 0
V5 B4in 0 dc 0
V10 A1in 0 dc 5
V11 A2in 0 dc 5
V12 A3in 0 dc 0
V13 A4in 0 dc 0
V4 S1 0 dc 0
V6 S2 0 dc 0
V7 S3 0 dc 0
V8 S4 0 dc 0
V9 S0 0 dc 0
R2 aluVcc alualureplicate141replicate14buffer1buffernot1NQ 1K
R1 alualureplicate141A alualureplicate141replicate14buffer1buffernot1Qr 10K
Q1 alualureplicate141replicate14buffer1buffernot1NQ alualureplicate141replicate14buffer1buffernot1Qr 0 NPN
R4 aluVcc alualuand41A1 1K
R3 alualureplicate141replicate14buffer1buffernot1NQ alualureplicate141replicate14buffer1buffernot2Qr 10K
Q2 alualuand41A1 alualureplicate141replicate14buffer1buffernot2Qr 0 NPN
R6 aluVcc alualureplicate141replicate14buffer2buffernot1NQ 1K
R5 alualureplicate141A alualureplicate141replicate14buffer2buffernot1Qr 10K
Q3 alualureplicate141replicate14buffer2buffernot1NQ alualureplicate141replicate14buffer2buffernot1Qr 0 NPN
R8 aluVcc alualuand41A2 1K
R7 alualureplicate141replicate14buffer2buffernot1NQ alualureplicate141replicate14buffer2buffernot2Qr 10K
Q4 alualuand41A2 alualureplicate141replicate14buffer2buffernot2Qr 0 NPN
R10 aluVcc alualureplicate141replicate14buffer3buffernot1NQ 1K
R9 alualureplicate141A alualureplicate141replicate14buffer3buffernot1Qr 10K
Q5 alualureplicate141replicate14buffer3buffernot1NQ alualureplicate141replicate14buffer3buffernot1Qr 0 NPN
R12 aluVcc alualuand41A3 1K
R11 alualureplicate141replicate14buffer3buffernot1NQ alualureplicate141replicate14buffer3buffernot2Qr 10K
Q6 alualuand41A3 alualureplicate141replicate14buffer3buffernot2Qr 0 NPN
R14 aluVcc alualureplicate141replicate14buffer4buffernot1NQ 1K
R13 alualureplicate141A alualureplicate141replicate14buffer4buffernot1Qr 10K
Q7 alualureplicate141replicate14buffer4buffernot1NQ alualureplicate141replicate14buffer4buffernot1Qr 0 NPN
R16 aluVcc alualuand41A4 1K
R15 alualureplicate141replicate14buffer4buffernot1NQ alualureplicate141replicate14buffer4buffernot2Qr 10K
Q8 alualuand41A4 alualureplicate141replicate14buffer4buffernot2Qr 0 NPN
R19 aluVcc alualumux4411B1 1K
R17 alualuand42gateand42and1sheet5C364DB7A alualuand42gateand42and1sheet5C364DB7AorB 10K
R18 alualuand42gateand42and1sheet5C364DB7B alualuand42gateand42and1sheet5C364DB7AorB 10K
Q9 alualumux4411B1 alualuand42gateand42and1sheet5C364DB7AorB 0 NPN
R21 aluVcc alualuand42gateand42and1sheet5C364DB7A 1K
R20 A1in alualuand42gateand42and1Sheet5C3654CCQr 10K
Q10 alualuand42gateand42and1sheet5C364DB7A alualuand42gateand42and1Sheet5C3654CCQr 0 NPN
R23 aluVcc alualuand42gateand42and1sheet5C364DB7B 1K
R22 B1in alualuand42gateand42and1sheet5C366192Qr 10K
Q11 alualuand42gateand42and1sheet5C364DB7B alualuand42gateand42and1sheet5C366192Qr 0 NPN
R26 aluVcc alualumux4411B2 1K
R24 alualuand42gateand42and2sheet5C364DB7A alualuand42gateand42and2sheet5C364DB7AorB 10K
R25 alualuand42gateand42and2sheet5C364DB7B alualuand42gateand42and2sheet5C364DB7AorB 10K
Q12 alualumux4411B2 alualuand42gateand42and2sheet5C364DB7AorB 0 NPN
R28 aluVcc alualuand42gateand42and2sheet5C364DB7A 1K
R27 A2in alualuand42gateand42and2Sheet5C3654CCQr 10K
Q13 alualuand42gateand42and2sheet5C364DB7A alualuand42gateand42and2Sheet5C3654CCQr 0 NPN
R30 aluVcc alualuand42gateand42and2sheet5C364DB7B 1K
R29 B2in alualuand42gateand42and2sheet5C366192Qr 10K
Q14 alualuand42gateand42and2sheet5C364DB7B alualuand42gateand42and2sheet5C366192Qr 0 NPN
R33 aluVcc alualumux4411B3 1K
R31 alualuand42gateand42and3sheet5C364DB7A alualuand42gateand42and3sheet5C364DB7AorB 10K
R32 alualuand42gateand42and3sheet5C364DB7B alualuand42gateand42and3sheet5C364DB7AorB 10K
Q15 alualumux4411B3 alualuand42gateand42and3sheet5C364DB7AorB 0 NPN
R35 aluVcc alualuand42gateand42and3sheet5C364DB7A 1K
R34 A3in alualuand42gateand42and3Sheet5C3654CCQr 10K
Q16 alualuand42gateand42and3sheet5C364DB7A alualuand42gateand42and3Sheet5C3654CCQr 0 NPN
R37 aluVcc alualuand42gateand42and3sheet5C364DB7B 1K
R36 B3in alualuand42gateand42and3sheet5C366192Qr 10K
Q17 alualuand42gateand42and3sheet5C364DB7B alualuand42gateand42and3sheet5C366192Qr 0 NPN
R40 aluVcc alualumux4411B4 1K
R38 alualuand42gateand42and4sheet5C364DB7A alualuand42gateand42and4sheet5C364DB7AorB 10K
R39 alualuand42gateand42and4sheet5C364DB7B alualuand42gateand42and4sheet5C364DB7AorB 10K
Q18 alualumux4411B4 alualuand42gateand42and4sheet5C364DB7AorB 0 NPN
R42 aluVcc alualuand42gateand42and4sheet5C364DB7A 1K
R41 A4in alualuand42gateand42and4Sheet5C3654CCQr 10K
Q19 alualuand42gateand42and4sheet5C364DB7A alualuand42gateand42and4Sheet5C3654CCQr 0 NPN
R44 aluVcc alualuand42gateand42and4sheet5C364DB7B 1K
R43 B4in alualuand42gateand42and4sheet5C366192Qr 10K
Q20 alualuand42gateand42and4sheet5C364DB7B alualuand42gateand42and4sheet5C366192Qr 0 NPN
R47 aluVcc alualubitwiseinv1bitwiseinvxor21xor2nor2B 1K
R45 S4 alualubitwiseinv1bitwiseinvxor21xor2nor1AorB 10K
R46 B1in alualubitwiseinv1bitwiseinvxor21xor2nor1AorB 10K
Q21 alualubitwiseinv1bitwiseinvxor21xor2nor2B alualubitwiseinv1bitwiseinvxor21xor2nor1AorB 0 NPN
R50 aluVcc alualubitwiseinv1bitwiseinvxor21xor2nor2A 1K
R48 alualubitwiseinv1bitwiseinvxor21xor2and1sheet5C364DB7A alualubitwiseinv1bitwiseinvxor21xor2and1sheet5C364DB7AorB 10K
R49 alualubitwiseinv1bitwiseinvxor21xor2and1sheet5C364DB7B alualubitwiseinv1bitwiseinvxor21xor2and1sheet5C364DB7AorB 10K
Q22 alualubitwiseinv1bitwiseinvxor21xor2nor2A alualubitwiseinv1bitwiseinvxor21xor2and1sheet5C364DB7AorB 0 NPN
R52 aluVcc alualubitwiseinv1bitwiseinvxor21xor2and1sheet5C364DB7A 1K
R51 S4 alualubitwiseinv1bitwiseinvxor21xor2and1Sheet5C3654CCQr 10K
Q23 alualubitwiseinv1bitwiseinvxor21xor2and1sheet5C364DB7A alualubitwiseinv1bitwiseinvxor21xor2and1Sheet5C3654CCQr 0 NPN
R54 aluVcc alualubitwiseinv1bitwiseinvxor21xor2and1sheet5C364DB7B 1K
R53 B1in alualubitwiseinv1bitwiseinvxor21xor2and1sheet5C366192Qr 10K
Q24 alualubitwiseinv1bitwiseinvxor21xor2and1sheet5C364DB7B alualubitwiseinv1bitwiseinvxor21xor2and1sheet5C366192Qr 0 NPN
R57 aluVcc alualuand41B1 1K
R55 alualubitwiseinv1bitwiseinvxor21xor2nor2A alualubitwiseinv1bitwiseinvxor21xor2nor2AorB 10K
R56 alualubitwiseinv1bitwiseinvxor21xor2nor2B alualubitwiseinv1bitwiseinvxor21xor2nor2AorB 10K
Q25 alualuand41B1 alualubitwiseinv1bitwiseinvxor21xor2nor2AorB 0 NPN
R60 aluVcc alualubitwiseinv1bitwiseinvxor22xor2nor2B 1K
R58 S4 alualubitwiseinv1bitwiseinvxor22xor2nor1AorB 10K
R59 B2in alualubitwiseinv1bitwiseinvxor22xor2nor1AorB 10K
Q26 alualubitwiseinv1bitwiseinvxor22xor2nor2B alualubitwiseinv1bitwiseinvxor22xor2nor1AorB 0 NPN
R63 aluVcc alualubitwiseinv1bitwiseinvxor22xor2nor2A 1K
R61 alualubitwiseinv1bitwiseinvxor22xor2and1sheet5C364DB7A alualubitwiseinv1bitwiseinvxor22xor2and1sheet5C364DB7AorB 10K
R62 alualubitwiseinv1bitwiseinvxor22xor2and1sheet5C364DB7B alualubitwiseinv1bitwiseinvxor22xor2and1sheet5C364DB7AorB 10K
Q27 alualubitwiseinv1bitwiseinvxor22xor2nor2A alualubitwiseinv1bitwiseinvxor22xor2and1sheet5C364DB7AorB 0 NPN
R65 aluVcc alualubitwiseinv1bitwiseinvxor22xor2and1sheet5C364DB7A 1K
R64 S4 alualubitwiseinv1bitwiseinvxor22xor2and1Sheet5C3654CCQr 10K
Q28 alualubitwiseinv1bitwiseinvxor22xor2and1sheet5C364DB7A alualubitwiseinv1bitwiseinvxor22xor2and1Sheet5C3654CCQr 0 NPN
R67 aluVcc alualubitwiseinv1bitwiseinvxor22xor2and1sheet5C364DB7B 1K
R66 B2in alualubitwiseinv1bitwiseinvxor22xor2and1sheet5C366192Qr 10K
Q29 alualubitwiseinv1bitwiseinvxor22xor2and1sheet5C364DB7B alualubitwiseinv1bitwiseinvxor22xor2and1sheet5C366192Qr 0 NPN
R70 aluVcc alualuand41B2 1K
R68 alualubitwiseinv1bitwiseinvxor22xor2nor2A alualubitwiseinv1bitwiseinvxor22xor2nor2AorB 10K
R69 alualubitwiseinv1bitwiseinvxor22xor2nor2B alualubitwiseinv1bitwiseinvxor22xor2nor2AorB 10K
Q30 alualuand41B2 alualubitwiseinv1bitwiseinvxor22xor2nor2AorB 0 NPN
R73 aluVcc alualubitwiseinv1bitwiseinvxor23xor2nor2B 1K
R71 S4 alualubitwiseinv1bitwiseinvxor23xor2nor1AorB 10K
R72 B3in alualubitwiseinv1bitwiseinvxor23xor2nor1AorB 10K
Q31 alualubitwiseinv1bitwiseinvxor23xor2nor2B alualubitwiseinv1bitwiseinvxor23xor2nor1AorB 0 NPN
R76 aluVcc alualubitwiseinv1bitwiseinvxor23xor2nor2A 1K
R74 alualubitwiseinv1bitwiseinvxor23xor2and1sheet5C364DB7A alualubitwiseinv1bitwiseinvxor23xor2and1sheet5C364DB7AorB 10K
R75 alualubitwiseinv1bitwiseinvxor23xor2and1sheet5C364DB7B alualubitwiseinv1bitwiseinvxor23xor2and1sheet5C364DB7AorB 10K
Q32 alualubitwiseinv1bitwiseinvxor23xor2nor2A alualubitwiseinv1bitwiseinvxor23xor2and1sheet5C364DB7AorB 0 NPN
R78 aluVcc alualubitwiseinv1bitwiseinvxor23xor2and1sheet5C364DB7A 1K
R77 S4 alualubitwiseinv1bitwiseinvxor23xor2and1Sheet5C3654CCQr 10K
Q33 alualubitwiseinv1bitwiseinvxor23xor2and1sheet5C364DB7A alualubitwiseinv1bitwiseinvxor23xor2and1Sheet5C3654CCQr 0 NPN
R80 aluVcc alualubitwiseinv1bitwiseinvxor23xor2and1sheet5C364DB7B 1K
R79 B3in alualubitwiseinv1bitwiseinvxor23xor2and1sheet5C366192Qr 10K
Q34 alualubitwiseinv1bitwiseinvxor23xor2and1sheet5C364DB7B alualubitwiseinv1bitwiseinvxor23xor2and1sheet5C366192Qr 0 NPN
R83 aluVcc alualuand41B3 1K
R81 alualubitwiseinv1bitwiseinvxor23xor2nor2A alualubitwiseinv1bitwiseinvxor23xor2nor2AorB 10K
R82 alualubitwiseinv1bitwiseinvxor23xor2nor2B alualubitwiseinv1bitwiseinvxor23xor2nor2AorB 10K
Q35 alualuand41B3 alualubitwiseinv1bitwiseinvxor23xor2nor2AorB 0 NPN
R86 aluVcc alualubitwiseinv1bitwiseinvxor24xor2nor2B 1K
R84 S4 alualubitwiseinv1bitwiseinvxor24xor2nor1AorB 10K
R85 B4in alualubitwiseinv1bitwiseinvxor24xor2nor1AorB 10K
Q36 alualubitwiseinv1bitwiseinvxor24xor2nor2B alualubitwiseinv1bitwiseinvxor24xor2nor1AorB 0 NPN
R89 aluVcc alualubitwiseinv1bitwiseinvxor24xor2nor2A 1K
R87 alualubitwiseinv1bitwiseinvxor24xor2and1sheet5C364DB7A alualubitwiseinv1bitwiseinvxor24xor2and1sheet5C364DB7AorB 10K
R88 alualubitwiseinv1bitwiseinvxor24xor2and1sheet5C364DB7B alualubitwiseinv1bitwiseinvxor24xor2and1sheet5C364DB7AorB 10K
Q37 alualubitwiseinv1bitwiseinvxor24xor2nor2A alualubitwiseinv1bitwiseinvxor24xor2and1sheet5C364DB7AorB 0 NPN
R91 aluVcc alualubitwiseinv1bitwiseinvxor24xor2and1sheet5C364DB7A 1K
R90 S4 alualubitwiseinv1bitwiseinvxor24xor2and1Sheet5C3654CCQr 10K
Q38 alualubitwiseinv1bitwiseinvxor24xor2and1sheet5C364DB7A alualubitwiseinv1bitwiseinvxor24xor2and1Sheet5C3654CCQr 0 NPN
R93 aluVcc alualubitwiseinv1bitwiseinvxor24xor2and1sheet5C364DB7B 1K
R92 B4in alualubitwiseinv1bitwiseinvxor24xor2and1sheet5C366192Qr 10K
Q39 alualubitwiseinv1bitwiseinvxor24xor2and1sheet5C364DB7B alualubitwiseinv1bitwiseinvxor24xor2and1sheet5C366192Qr 0 NPN
R96 aluVcc alualuand41B4 1K
R94 alualubitwiseinv1bitwiseinvxor24xor2nor2A alualubitwiseinv1bitwiseinvxor24xor2nor2AorB 10K
R95 alualubitwiseinv1bitwiseinvxor24xor2nor2B alualubitwiseinv1bitwiseinvxor24xor2nor2AorB 10K
Q40 alualuand41B4 alualubitwiseinv1bitwiseinvxor24xor2nor2AorB 0 NPN
R98 aluVcc alualumux4411multiplexer441mux4213A1 1K
R97 alualumux4411multiplexer441mux4211multiplexer421mux1211mux21or1ornor1Q alualumux4411multiplexer441mux4211multiplexer421mux1211mux21or1ornot1Qr 10K
Q41 alualumux4411multiplexer441mux4213A1 alualumux4411multiplexer441mux4211multiplexer421mux1211mux21or1ornot1Qr 0 NPN
R101 aluVcc alualumux4411multiplexer441mux4211multiplexer421mux1211mux21or1ornor1Q 1K
R99 alualumux4411multiplexer441mux4211multiplexer421mux1211mux21or1A alualumux4411multiplexer441mux4211multiplexer421mux1211mux21or1ornor1AorB 10K
R100 alualumux4411multiplexer441mux4211multiplexer421mux1211mux21or1B alualumux4411multiplexer441mux4211multiplexer421mux1211mux21or1ornor1AorB 10K
Q42 alualumux4411multiplexer441mux4211multiplexer421mux1211mux21or1ornor1Q alualumux4411multiplexer441mux4211multiplexer421mux1211mux21or1ornor1AorB 0 NPN
R104 aluVcc alualumux4411multiplexer441mux4211multiplexer421mux1211mux21or1A 1K
R102 alualumux4411multiplexer441mux4211multiplexer421mux1211mux21and1sheet5C364DB7A alualumux4411multiplexer441mux4211multiplexer421mux1211mux21and1sheet5C364DB7AorB 10K
R103 alualumux4411multiplexer441mux4211multiplexer421mux1211mux21and1sheet5C364DB7B alualumux4411multiplexer441mux4211multiplexer421mux1211mux21and1sheet5C364DB7AorB 10K
Q43 alualumux4411multiplexer441mux4211multiplexer421mux1211mux21or1A alualumux4411multiplexer441mux4211multiplexer421mux1211mux21and1sheet5C364DB7AorB 0 NPN
R106 aluVcc alualumux4411multiplexer441mux4211multiplexer421mux1211mux21and1sheet5C364DB7A 1K
R105 aluAdderS1 alualumux4411multiplexer441mux4211multiplexer421mux1211mux21and1Sheet5C3654CCQr 10K
Q44 alualumux4411multiplexer441mux4211multiplexer421mux1211mux21and1sheet5C364DB7A alualumux4411multiplexer441mux4211multiplexer421mux1211mux21and1Sheet5C3654CCQr 0 NPN
R108 aluVcc alualumux4411multiplexer441mux4211multiplexer421mux1211mux21and1sheet5C364DB7B 1K
R107 alualumux4411multiplexer441mux4211multiplexer421mux1211mux21and1B alualumux4411multiplexer441mux4211multiplexer421mux1211mux21and1sheet5C366192Qr 10K
Q45 alualumux4411multiplexer441mux4211multiplexer421mux1211mux21and1sheet5C364DB7B alualumux4411multiplexer441mux4211multiplexer421mux1211mux21and1sheet5C366192Qr 0 NPN
R111 aluVcc alualumux4411multiplexer441mux4211multiplexer421mux1211mux21or1B 1K
R109 alualumux4411multiplexer441mux4211multiplexer421mux1211mux21and2sheet5C364DB7A alualumux4411multiplexer441mux4211multiplexer421mux1211mux21and2sheet5C364DB7AorB 10K
R110 alualumux4411multiplexer441mux4211multiplexer421mux1211mux21and2sheet5C364DB7B alualumux4411multiplexer441mux4211multiplexer421mux1211mux21and2sheet5C364DB7AorB 10K
Q46 alualumux4411multiplexer441mux4211multiplexer421mux1211mux21or1B alualumux4411multiplexer441mux4211multiplexer421mux1211mux21and2sheet5C364DB7AorB 0 NPN
R113 aluVcc alualumux4411multiplexer441mux4211multiplexer421mux1211mux21and2sheet5C364DB7A 1K
R112 S1 alualumux4411multiplexer441mux4211multiplexer421mux1211mux21and2Sheet5C3654CCQr 10K
Q47 alualumux4411multiplexer441mux4211multiplexer421mux1211mux21and2sheet5C364DB7A alualumux4411multiplexer441mux4211multiplexer421mux1211mux21and2Sheet5C3654CCQr 0 NPN
R115 aluVcc alualumux4411multiplexer441mux4211multiplexer421mux1211mux21and2sheet5C364DB7B 1K
R114 alualumux4411B1 alualumux4411multiplexer441mux4211multiplexer421mux1211mux21and2sheet5C366192Qr 10K
Q48 alualumux4411multiplexer441mux4211multiplexer421mux1211mux21and2sheet5C364DB7B alualumux4411multiplexer441mux4211multiplexer421mux1211mux21and2sheet5C366192Qr 0 NPN
R117 aluVcc alualumux4411multiplexer441mux4211multiplexer421mux1211mux21and1B 1K
R116 S1 alualumux4411multiplexer441mux4211multiplexer421mux1211mux21not1Qr 10K
Q49 alualumux4411multiplexer441mux4211multiplexer421mux1211mux21and1B alualumux4411multiplexer441mux4211multiplexer421mux1211mux21not1Qr 0 NPN
R119 aluVcc alualumux4411multiplexer441mux4213A2 1K
R118 alualumux4411multiplexer441mux4211multiplexer421mux1212mux21or1ornor1Q alualumux4411multiplexer441mux4211multiplexer421mux1212mux21or1ornot1Qr 10K
Q50 alualumux4411multiplexer441mux4213A2 alualumux4411multiplexer441mux4211multiplexer421mux1212mux21or1ornot1Qr 0 NPN
R122 aluVcc alualumux4411multiplexer441mux4211multiplexer421mux1212mux21or1ornor1Q 1K
R120 alualumux4411multiplexer441mux4211multiplexer421mux1212mux21or1A alualumux4411multiplexer441mux4211multiplexer421mux1212mux21or1ornor1AorB 10K
R121 alualumux4411multiplexer441mux4211multiplexer421mux1212mux21or1B alualumux4411multiplexer441mux4211multiplexer421mux1212mux21or1ornor1AorB 10K
Q51 alualumux4411multiplexer441mux4211multiplexer421mux1212mux21or1ornor1Q alualumux4411multiplexer441mux4211multiplexer421mux1212mux21or1ornor1AorB 0 NPN
R125 aluVcc alualumux4411multiplexer441mux4211multiplexer421mux1212mux21or1A 1K
R123 alualumux4411multiplexer441mux4211multiplexer421mux1212mux21and1sheet5C364DB7A alualumux4411multiplexer441mux4211multiplexer421mux1212mux21and1sheet5C364DB7AorB 10K
R124 alualumux4411multiplexer441mux4211multiplexer421mux1212mux21and1sheet5C364DB7B alualumux4411multiplexer441mux4211multiplexer421mux1212mux21and1sheet5C364DB7AorB 10K
Q52 alualumux4411multiplexer441mux4211multiplexer421mux1212mux21or1A alualumux4411multiplexer441mux4211multiplexer421mux1212mux21and1sheet5C364DB7AorB 0 NPN
R127 aluVcc alualumux4411multiplexer441mux4211multiplexer421mux1212mux21and1sheet5C364DB7A 1K
R126 aluAdderS1 alualumux4411multiplexer441mux4211multiplexer421mux1212mux21and1Sheet5C3654CCQr 10K
Q53 alualumux4411multiplexer441mux4211multiplexer421mux1212mux21and1sheet5C364DB7A alualumux4411multiplexer441mux4211multiplexer421mux1212mux21and1Sheet5C3654CCQr 0 NPN
R129 aluVcc alualumux4411multiplexer441mux4211multiplexer421mux1212mux21and1sheet5C364DB7B 1K
R128 alualumux4411multiplexer441mux4211multiplexer421mux1212mux21and1B alualumux4411multiplexer441mux4211multiplexer421mux1212mux21and1sheet5C366192Qr 10K
Q54 alualumux4411multiplexer441mux4211multiplexer421mux1212mux21and1sheet5C364DB7B alualumux4411multiplexer441mux4211multiplexer421mux1212mux21and1sheet5C366192Qr 0 NPN
R132 aluVcc alualumux4411multiplexer441mux4211multiplexer421mux1212mux21or1B 1K
R130 alualumux4411multiplexer441mux4211multiplexer421mux1212mux21and2sheet5C364DB7A alualumux4411multiplexer441mux4211multiplexer421mux1212mux21and2sheet5C364DB7AorB 10K
R131 alualumux4411multiplexer441mux4211multiplexer421mux1212mux21and2sheet5C364DB7B alualumux4411multiplexer441mux4211multiplexer421mux1212mux21and2sheet5C364DB7AorB 10K
Q55 alualumux4411multiplexer441mux4211multiplexer421mux1212mux21or1B alualumux4411multiplexer441mux4211multiplexer421mux1212mux21and2sheet5C364DB7AorB 0 NPN
R134 aluVcc alualumux4411multiplexer441mux4211multiplexer421mux1212mux21and2sheet5C364DB7A 1K
R133 S1 alualumux4411multiplexer441mux4211multiplexer421mux1212mux21and2Sheet5C3654CCQr 10K
Q56 alualumux4411multiplexer441mux4211multiplexer421mux1212mux21and2sheet5C364DB7A alualumux4411multiplexer441mux4211multiplexer421mux1212mux21and2Sheet5C3654CCQr 0 NPN
R136 aluVcc alualumux4411multiplexer441mux4211multiplexer421mux1212mux21and2sheet5C364DB7B 1K
R135 alualumux4411B2 alualumux4411multiplexer441mux4211multiplexer421mux1212mux21and2sheet5C366192Qr 10K
Q57 alualumux4411multiplexer441mux4211multiplexer421mux1212mux21and2sheet5C364DB7B alualumux4411multiplexer441mux4211multiplexer421mux1212mux21and2sheet5C366192Qr 0 NPN
R138 aluVcc alualumux4411multiplexer441mux4211multiplexer421mux1212mux21and1B 1K
R137 S1 alualumux4411multiplexer441mux4211multiplexer421mux1212mux21not1Qr 10K
Q58 alualumux4411multiplexer441mux4211multiplexer421mux1212mux21and1B alualumux4411multiplexer441mux4211multiplexer421mux1212mux21not1Qr 0 NPN
R140 aluVcc alualumux4411multiplexer441mux4213A3 1K
R139 alualumux4411multiplexer441mux4211multiplexer421mux1213mux21or1ornor1Q alualumux4411multiplexer441mux4211multiplexer421mux1213mux21or1ornot1Qr 10K
Q59 alualumux4411multiplexer441mux4213A3 alualumux4411multiplexer441mux4211multiplexer421mux1213mux21or1ornot1Qr 0 NPN
R143 aluVcc alualumux4411multiplexer441mux4211multiplexer421mux1213mux21or1ornor1Q 1K
R141 alualumux4411multiplexer441mux4211multiplexer421mux1213mux21or1A alualumux4411multiplexer441mux4211multiplexer421mux1213mux21or1ornor1AorB 10K
R142 alualumux4411multiplexer441mux4211multiplexer421mux1213mux21or1B alualumux4411multiplexer441mux4211multiplexer421mux1213mux21or1ornor1AorB 10K
Q60 alualumux4411multiplexer441mux4211multiplexer421mux1213mux21or1ornor1Q alualumux4411multiplexer441mux4211multiplexer421mux1213mux21or1ornor1AorB 0 NPN
R146 aluVcc alualumux4411multiplexer441mux4211multiplexer421mux1213mux21or1A 1K
R144 alualumux4411multiplexer441mux4211multiplexer421mux1213mux21and1sheet5C364DB7A alualumux4411multiplexer441mux4211multiplexer421mux1213mux21and1sheet5C364DB7AorB 10K
R145 alualumux4411multiplexer441mux4211multiplexer421mux1213mux21and1sheet5C364DB7B alualumux4411multiplexer441mux4211multiplexer421mux1213mux21and1sheet5C364DB7AorB 10K
Q61 alualumux4411multiplexer441mux4211multiplexer421mux1213mux21or1A alualumux4411multiplexer441mux4211multiplexer421mux1213mux21and1sheet5C364DB7AorB 0 NPN
R148 aluVcc alualumux4411multiplexer441mux4211multiplexer421mux1213mux21and1sheet5C364DB7A 1K
R147 aluAdderS3 alualumux4411multiplexer441mux4211multiplexer421mux1213mux21and1Sheet5C3654CCQr 10K
Q62 alualumux4411multiplexer441mux4211multiplexer421mux1213mux21and1sheet5C364DB7A alualumux4411multiplexer441mux4211multiplexer421mux1213mux21and1Sheet5C3654CCQr 0 NPN
R150 aluVcc alualumux4411multiplexer441mux4211multiplexer421mux1213mux21and1sheet5C364DB7B 1K
R149 alualumux4411multiplexer441mux4211multiplexer421mux1213mux21and1B alualumux4411multiplexer441mux4211multiplexer421mux1213mux21and1sheet5C366192Qr 10K
Q63 alualumux4411multiplexer441mux4211multiplexer421mux1213mux21and1sheet5C364DB7B alualumux4411multiplexer441mux4211multiplexer421mux1213mux21and1sheet5C366192Qr 0 NPN
R153 aluVcc alualumux4411multiplexer441mux4211multiplexer421mux1213mux21or1B 1K
R151 alualumux4411multiplexer441mux4211multiplexer421mux1213mux21and2sheet5C364DB7A alualumux4411multiplexer441mux4211multiplexer421mux1213mux21and2sheet5C364DB7AorB 10K
R152 alualumux4411multiplexer441mux4211multiplexer421mux1213mux21and2sheet5C364DB7B alualumux4411multiplexer441mux4211multiplexer421mux1213mux21and2sheet5C364DB7AorB 10K
Q64 alualumux4411multiplexer441mux4211multiplexer421mux1213mux21or1B alualumux4411multiplexer441mux4211multiplexer421mux1213mux21and2sheet5C364DB7AorB 0 NPN
R155 aluVcc alualumux4411multiplexer441mux4211multiplexer421mux1213mux21and2sheet5C364DB7A 1K
R154 S1 alualumux4411multiplexer441mux4211multiplexer421mux1213mux21and2Sheet5C3654CCQr 10K
Q65 alualumux4411multiplexer441mux4211multiplexer421mux1213mux21and2sheet5C364DB7A alualumux4411multiplexer441mux4211multiplexer421mux1213mux21and2Sheet5C3654CCQr 0 NPN
R157 aluVcc alualumux4411multiplexer441mux4211multiplexer421mux1213mux21and2sheet5C364DB7B 1K
R156 alualumux4411B3 alualumux4411multiplexer441mux4211multiplexer421mux1213mux21and2sheet5C366192Qr 10K
Q66 alualumux4411multiplexer441mux4211multiplexer421mux1213mux21and2sheet5C364DB7B alualumux4411multiplexer441mux4211multiplexer421mux1213mux21and2sheet5C366192Qr 0 NPN
R159 aluVcc alualumux4411multiplexer441mux4211multiplexer421mux1213mux21and1B 1K
R158 S1 alualumux4411multiplexer441mux4211multiplexer421mux1213mux21not1Qr 10K
Q67 alualumux4411multiplexer441mux4211multiplexer421mux1213mux21and1B alualumux4411multiplexer441mux4211multiplexer421mux1213mux21not1Qr 0 NPN
R161 aluVcc alualumux4411multiplexer441mux4213A4 1K
R160 alualumux4411multiplexer441mux4211multiplexer421mux1214mux21or1ornor1Q alualumux4411multiplexer441mux4211multiplexer421mux1214mux21or1ornot1Qr 10K
Q68 alualumux4411multiplexer441mux4213A4 alualumux4411multiplexer441mux4211multiplexer421mux1214mux21or1ornot1Qr 0 NPN
R164 aluVcc alualumux4411multiplexer441mux4211multiplexer421mux1214mux21or1ornor1Q 1K
R162 alualumux4411multiplexer441mux4211multiplexer421mux1214mux21or1A alualumux4411multiplexer441mux4211multiplexer421mux1214mux21or1ornor1AorB 10K
R163 alualumux4411multiplexer441mux4211multiplexer421mux1214mux21or1B alualumux4411multiplexer441mux4211multiplexer421mux1214mux21or1ornor1AorB 10K
Q69 alualumux4411multiplexer441mux4211multiplexer421mux1214mux21or1ornor1Q alualumux4411multiplexer441mux4211multiplexer421mux1214mux21or1ornor1AorB 0 NPN
R167 aluVcc alualumux4411multiplexer441mux4211multiplexer421mux1214mux21or1A 1K
R165 alualumux4411multiplexer441mux4211multiplexer421mux1214mux21and1sheet5C364DB7A alualumux4411multiplexer441mux4211multiplexer421mux1214mux21and1sheet5C364DB7AorB 10K
R166 alualumux4411multiplexer441mux4211multiplexer421mux1214mux21and1sheet5C364DB7B alualumux4411multiplexer441mux4211multiplexer421mux1214mux21and1sheet5C364DB7AorB 10K
Q70 alualumux4411multiplexer441mux4211multiplexer421mux1214mux21or1A alualumux4411multiplexer441mux4211multiplexer421mux1214mux21and1sheet5C364DB7AorB 0 NPN
R169 aluVcc alualumux4411multiplexer441mux4211multiplexer421mux1214mux21and1sheet5C364DB7A 1K
R168 aluAdderS4 alualumux4411multiplexer441mux4211multiplexer421mux1214mux21and1Sheet5C3654CCQr 10K
Q71 alualumux4411multiplexer441mux4211multiplexer421mux1214mux21and1sheet5C364DB7A alualumux4411multiplexer441mux4211multiplexer421mux1214mux21and1Sheet5C3654CCQr 0 NPN
R171 aluVcc alualumux4411multiplexer441mux4211multiplexer421mux1214mux21and1sheet5C364DB7B 1K
R170 alualumux4411multiplexer441mux4211multiplexer421mux1214mux21and1B alualumux4411multiplexer441mux4211multiplexer421mux1214mux21and1sheet5C366192Qr 10K
Q72 alualumux4411multiplexer441mux4211multiplexer421mux1214mux21and1sheet5C364DB7B alualumux4411multiplexer441mux4211multiplexer421mux1214mux21and1sheet5C366192Qr 0 NPN
R174 aluVcc alualumux4411multiplexer441mux4211multiplexer421mux1214mux21or1B 1K
R172 alualumux4411multiplexer441mux4211multiplexer421mux1214mux21and2sheet5C364DB7A alualumux4411multiplexer441mux4211multiplexer421mux1214mux21and2sheet5C364DB7AorB 10K
R173 alualumux4411multiplexer441mux4211multiplexer421mux1214mux21and2sheet5C364DB7B alualumux4411multiplexer441mux4211multiplexer421mux1214mux21and2sheet5C364DB7AorB 10K
Q73 alualumux4411multiplexer441mux4211multiplexer421mux1214mux21or1B alualumux4411multiplexer441mux4211multiplexer421mux1214mux21and2sheet5C364DB7AorB 0 NPN
R176 aluVcc alualumux4411multiplexer441mux4211multiplexer421mux1214mux21and2sheet5C364DB7A 1K
R175 S1 alualumux4411multiplexer441mux4211multiplexer421mux1214mux21and2Sheet5C3654CCQr 10K
Q74 alualumux4411multiplexer441mux4211multiplexer421mux1214mux21and2sheet5C364DB7A alualumux4411multiplexer441mux4211multiplexer421mux1214mux21and2Sheet5C3654CCQr 0 NPN
R178 aluVcc alualumux4411multiplexer441mux4211multiplexer421mux1214mux21and2sheet5C364DB7B 1K
R177 alualumux4411B4 alualumux4411multiplexer441mux4211multiplexer421mux1214mux21and2sheet5C366192Qr 10K
Q75 alualumux4411multiplexer441mux4211multiplexer421mux1214mux21and2sheet5C364DB7B alualumux4411multiplexer441mux4211multiplexer421mux1214mux21and2sheet5C366192Qr 0 NPN
R180 aluVcc alualumux4411multiplexer441mux4211multiplexer421mux1214mux21and1B 1K
R179 S1 alualumux4411multiplexer441mux4211multiplexer421mux1214mux21not1Qr 10K
Q76 alualumux4411multiplexer441mux4211multiplexer421mux1214mux21and1B alualumux4411multiplexer441mux4211multiplexer421mux1214mux21not1Qr 0 NPN
R182 aluVcc alualumux4411multiplexer441mux4213B1 1K
R181 alualumux4411multiplexer441mux4212multiplexer421mux1211mux21or1ornor1Q alualumux4411multiplexer441mux4212multiplexer421mux1211mux21or1ornot1Qr 10K
Q77 alualumux4411multiplexer441mux4213B1 alualumux4411multiplexer441mux4212multiplexer421mux1211mux21or1ornot1Qr 0 NPN
R185 aluVcc alualumux4411multiplexer441mux4212multiplexer421mux1211mux21or1ornor1Q 1K
R183 alualumux4411multiplexer441mux4212multiplexer421mux1211mux21or1A alualumux4411multiplexer441mux4212multiplexer421mux1211mux21or1ornor1AorB 10K
R184 alualumux4411multiplexer441mux4212multiplexer421mux1211mux21or1B alualumux4411multiplexer441mux4212multiplexer421mux1211mux21or1ornor1AorB 10K
Q78 alualumux4411multiplexer441mux4212multiplexer421mux1211mux21or1ornor1Q alualumux4411multiplexer441mux4212multiplexer421mux1211mux21or1ornor1AorB 0 NPN
R188 aluVcc alualumux4411multiplexer441mux4212multiplexer421mux1211mux21or1A 1K
R186 alualumux4411multiplexer441mux4212multiplexer421mux1211mux21and1sheet5C364DB7A alualumux4411multiplexer441mux4212multiplexer421mux1211mux21and1sheet5C364DB7AorB 10K
R187 alualumux4411multiplexer441mux4212multiplexer421mux1211mux21and1sheet5C364DB7B alualumux4411multiplexer441mux4212multiplexer421mux1211mux21and1sheet5C364DB7AorB 10K
Q79 alualumux4411multiplexer441mux4212multiplexer421mux1211mux21or1A alualumux4411multiplexer441mux4212multiplexer421mux1211mux21and1sheet5C364DB7AorB 0 NPN
R190 aluVcc alualumux4411multiplexer441mux4212multiplexer421mux1211mux21and1sheet5C364DB7A 1K
R189 A1in alualumux4411multiplexer441mux4212multiplexer421mux1211mux21and1Sheet5C3654CCQr 10K
Q80 alualumux4411multiplexer441mux4212multiplexer421mux1211mux21and1sheet5C364DB7A alualumux4411multiplexer441mux4212multiplexer421mux1211mux21and1Sheet5C3654CCQr 0 NPN
R192 aluVcc alualumux4411multiplexer441mux4212multiplexer421mux1211mux21and1sheet5C364DB7B 1K
R191 alualumux4411multiplexer441mux4212multiplexer421mux1211mux21and1B alualumux4411multiplexer441mux4212multiplexer421mux1211mux21and1sheet5C366192Qr 10K
Q81 alualumux4411multiplexer441mux4212multiplexer421mux1211mux21and1sheet5C364DB7B alualumux4411multiplexer441mux4212multiplexer421mux1211mux21and1sheet5C366192Qr 0 NPN
R195 aluVcc alualumux4411multiplexer441mux4212multiplexer421mux1211mux21or1B 1K
R193 alualumux4411multiplexer441mux4212multiplexer421mux1211mux21and2sheet5C364DB7A alualumux4411multiplexer441mux4212multiplexer421mux1211mux21and2sheet5C364DB7AorB 10K
R194 alualumux4411multiplexer441mux4212multiplexer421mux1211mux21and2sheet5C364DB7B alualumux4411multiplexer441mux4212multiplexer421mux1211mux21and2sheet5C364DB7AorB 10K
Q82 alualumux4411multiplexer441mux4212multiplexer421mux1211mux21or1B alualumux4411multiplexer441mux4212multiplexer421mux1211mux21and2sheet5C364DB7AorB 0 NPN
R197 aluVcc alualumux4411multiplexer441mux4212multiplexer421mux1211mux21and2sheet5C364DB7A 1K
R196 S1 alualumux4411multiplexer441mux4212multiplexer421mux1211mux21and2Sheet5C3654CCQr 10K
Q83 alualumux4411multiplexer441mux4212multiplexer421mux1211mux21and2sheet5C364DB7A alualumux4411multiplexer441mux4212multiplexer421mux1211mux21and2Sheet5C3654CCQr 0 NPN
R199 aluVcc alualumux4411multiplexer441mux4212multiplexer421mux1211mux21and2sheet5C364DB7B 1K
R198 B1in alualumux4411multiplexer441mux4212multiplexer421mux1211mux21and2sheet5C366192Qr 10K
Q84 alualumux4411multiplexer441mux4212multiplexer421mux1211mux21and2sheet5C364DB7B alualumux4411multiplexer441mux4212multiplexer421mux1211mux21and2sheet5C366192Qr 0 NPN
R201 aluVcc alualumux4411multiplexer441mux4212multiplexer421mux1211mux21and1B 1K
R200 S1 alualumux4411multiplexer441mux4212multiplexer421mux1211mux21not1Qr 10K
Q85 alualumux4411multiplexer441mux4212multiplexer421mux1211mux21and1B alualumux4411multiplexer441mux4212multiplexer421mux1211mux21not1Qr 0 NPN
R203 aluVcc alualumux4411multiplexer441mux4213B2 1K